*SPEF "ieee 1481-1999"
*DESIGN "LIF"
*DATE "12:12:53 Saturday September 28, 2024"
*VENDOR "The OpenROAD Project"
*PROGRAM "OpenROAD"
*VERSION "b16bda7e82721d10566ff7e2b68f1ff0be9f9e38"
*DESIGN_FLOW "NAME_SCOPE LOCAL" "PIN_CAP NONE"
*DIVIDER /
*DELIMITER :
*BUS_DELIMITER []
*T_UNIT 1 NS
*C_UNIT 1 PF
*R_UNIT 1 OHM
*L_UNIT 1 HENRY

*NAME_MAP
*3 clk
*4 current[0]
*5 current[1]
*6 current[2]
*7 current[3]
*8 current[4]
*9 current[5]
*10 current[6]
*11 current[7]
*12 reset
*13 spike
*14 voltage[0]
*15 voltage[1]
*16 voltage[2]
*17 voltage[3]
*18 voltage[4]
*19 voltage[5]
*20 voltage[6]
*21 voltage[7]
*22 _000_
*23 _001_
*24 _002_
*25 _003_
*26 _004_
*27 _005_
*28 _006_
*29 _007_
*30 _008_
*31 _009_
*32 _010_
*33 _011_
*34 _012_
*35 _013_
*36 _014_
*37 _015_
*38 _016_
*39 _017_
*40 _018_
*41 _019_
*42 _020_
*43 _021_
*44 _022_
*45 _023_
*46 _024_
*47 _025_
*48 _026_
*49 _027_
*50 _028_
*51 _029_
*52 _030_
*53 _031_
*54 _032_
*55 _033_
*56 _034_
*57 _035_
*58 _036_
*59 _037_
*60 _038_
*61 _039_
*62 _040_
*63 _041_
*64 _042_
*65 _043_
*66 _044_
*67 _045_
*68 _046_
*69 _047_
*70 _048_
*71 _049_
*72 _050_
*73 _051_
*74 _052_
*75 _053_
*76 _054_
*77 _055_
*78 _056_
*79 _057_
*80 _058_
*81 _059_
*82 _060_
*83 _061_
*84 _062_
*85 _063_
*86 _064_
*87 _065_
*88 _066_
*89 _067_
*90 _068_
*91 _069_
*92 _070_
*93 _071_
*94 _072_
*95 _073_
*96 _074_
*97 _075_
*98 _076_
*99 _077_
*100 _078_
*101 _079_
*102 _080_
*103 _081_
*104 _082_
*105 _083_
*106 _084_
*107 _085_
*108 _086_
*109 _087_
*110 _088_
*111 _089_
*112 _090_
*113 _091_
*114 _092_
*115 _093_
*116 _094_
*117 _095_
*118 _096_
*119 _097_
*120 _098_
*121 _099_
*122 _100_
*123 _101_
*124 _102_
*125 _103_
*126 _104_
*127 _105_
*128 _106_
*129 _107_
*130 _108_
*131 _109_
*132 _110_
*133 _111_
*134 _112_
*135 _113_
*136 _114_
*137 _115_
*138 _116_
*139 _117_
*140 _118_
*141 clknet_0_clk
*142 clknet_1_0__leaf_clk
*143 clknet_1_1__leaf_clk
*144 net1
*145 net10
*146 net11
*147 net12
*148 net13
*149 net14
*150 net15
*151 net16
*152 net17
*153 net18
*154 net19
*155 net2
*156 net20
*157 net21
*158 net22
*159 net23
*160 net3
*161 net4
*162 net5
*163 net6
*164 net7
*165 net8
*166 net9
*167 next_state\[0\]
*168 next_state\[1\]
*169 state\[0\]
*170 state\[1\]
*171 FILLER_0_0_109
*172 FILLER_0_0_113
*173 FILLER_0_0_15
*174 FILLER_0_0_27
*175 FILLER_0_0_29
*176 FILLER_0_0_3
*177 FILLER_0_0_41
*178 FILLER_0_0_46
*179 FILLER_0_0_55
*180 FILLER_0_0_57
*181 FILLER_0_0_63
*182 FILLER_0_0_70
*183 FILLER_0_0_77
*184 FILLER_0_0_83
*185 FILLER_0_0_85
*186 FILLER_0_0_97
*187 FILLER_0_10_103
*188 FILLER_0_10_115
*189 FILLER_0_10_13
*190 FILLER_0_10_32
*191 FILLER_0_10_54
*192 FILLER_0_10_64
*193 FILLER_0_10_7
*194 FILLER_0_10_76
*195 FILLER_0_10_81
*196 FILLER_0_10_85
*197 FILLER_0_10_97
*198 FILLER_0_11_101
*199 FILLER_0_11_109
*200 FILLER_0_11_113
*201 FILLER_0_11_25
*202 FILLER_0_11_3
*203 FILLER_0_11_37
*204 FILLER_0_11_55
*205 FILLER_0_11_66
*206 FILLER_0_11_78
*207 FILLER_0_11_89
*208 FILLER_0_12_103
*209 FILLER_0_12_11
*210 FILLER_0_12_17
*211 FILLER_0_12_21
*212 FILLER_0_12_27
*213 FILLER_0_12_29
*214 FILLER_0_12_3
*215 FILLER_0_12_41
*216 FILLER_0_12_54
*217 FILLER_0_12_66
*218 FILLER_0_12_81
*219 FILLER_0_12_88
*220 FILLER_0_13_108
*221 FILLER_0_13_113
*222 FILLER_0_13_43
*223 FILLER_0_13_55
*224 FILLER_0_13_57
*225 FILLER_0_13_63
*226 FILLER_0_13_68
*227 FILLER_0_13_80
*228 FILLER_0_13_96
*229 FILLER_0_14_111
*230 FILLER_0_14_115
*231 FILLER_0_14_19
*232 FILLER_0_14_27
*233 FILLER_0_14_29
*234 FILLER_0_14_41
*235 FILLER_0_14_56
*236 FILLER_0_14_68
*237 FILLER_0_14_7
*238 FILLER_0_14_76
*239 FILLER_0_14_80
*240 FILLER_0_14_85
*241 FILLER_0_14_99
*242 FILLER_0_15_113
*243 FILLER_0_15_26
*244 FILLER_0_15_34
*245 FILLER_0_15_54
*246 FILLER_0_15_63
*247 FILLER_0_15_71
*248 FILLER_0_15_85
*249 FILLER_0_15_97
*250 FILLER_0_16_117
*251 FILLER_0_16_19
*252 FILLER_0_16_25
*253 FILLER_0_16_29
*254 FILLER_0_16_48
*255 FILLER_0_16_53
*256 FILLER_0_16_65
*257 FILLER_0_16_69
*258 FILLER_0_16_7
*259 FILLER_0_16_74
*260 FILLER_0_16_82
*261 FILLER_0_16_85
*262 FILLER_0_17_109
*263 FILLER_0_17_11
*264 FILLER_0_17_113
*265 FILLER_0_17_3
*266 FILLER_0_17_36
*267 FILLER_0_17_45
*268 FILLER_0_17_54
*269 FILLER_0_17_57
*270 FILLER_0_17_65
*271 FILLER_0_17_86
*272 FILLER_0_18_105
*273 FILLER_0_18_117
*274 FILLER_0_18_29
*275 FILLER_0_18_3
*276 FILLER_0_18_41
*277 FILLER_0_18_48
*278 FILLER_0_18_61
*279 FILLER_0_18_65
*280 FILLER_0_18_76
*281 FILLER_0_18_85
*282 FILLER_0_18_93
*283 FILLER_0_19_109
*284 FILLER_0_19_113
*285 FILLER_0_19_15
*286 FILLER_0_19_27
*287 FILLER_0_19_29
*288 FILLER_0_19_3
*289 FILLER_0_19_41
*290 FILLER_0_19_49
*291 FILLER_0_19_57
*292 FILLER_0_19_65
*293 FILLER_0_19_69
*294 FILLER_0_19_76
*295 FILLER_0_19_83
*296 FILLER_0_19_85
*297 FILLER_0_19_97
*298 FILLER_0_1_107
*299 FILLER_0_1_111
*300 FILLER_0_1_113
*301 FILLER_0_1_30
*302 FILLER_0_1_54
*303 FILLER_0_1_57
*304 FILLER_0_1_63
*305 FILLER_0_1_84
*306 FILLER_0_1_92
*307 FILLER_0_1_97
*308 FILLER_0_2_105
*309 FILLER_0_2_113
*310 FILLER_0_2_29
*311 FILLER_0_2_3
*312 FILLER_0_2_33
*313 FILLER_0_2_45
*314 FILLER_0_2_63
*315 FILLER_0_2_77
*316 FILLER_0_3_11
*317 FILLER_0_3_118
*318 FILLER_0_3_22
*319 FILLER_0_3_26
*320 FILLER_0_3_3
*321 FILLER_0_3_37
*322 FILLER_0_3_45
*323 FILLER_0_3_52
*324 FILLER_0_3_57
*325 FILLER_0_3_72
*326 FILLER_0_3_82
*327 FILLER_0_3_90
*328 FILLER_0_3_98
*329 FILLER_0_4_114
*330 FILLER_0_4_118
*331 FILLER_0_4_15
*332 FILLER_0_4_27
*333 FILLER_0_4_29
*334 FILLER_0_4_3
*335 FILLER_0_4_48
*336 FILLER_0_4_60
*337 FILLER_0_4_72
*338 FILLER_0_4_92
*339 FILLER_0_5_100
*340 FILLER_0_5_113
*341 FILLER_0_5_15
*342 FILLER_0_5_27
*343 FILLER_0_5_3
*344 FILLER_0_5_62
*345 FILLER_0_5_70
*346 FILLER_0_5_76
*347 FILLER_0_5_88
*348 FILLER_0_6_106
*349 FILLER_0_6_114
*350 FILLER_0_6_27
*351 FILLER_0_6_59
*352 FILLER_0_6_63
*353 FILLER_0_6_85
*354 FILLER_0_6_97
*355 FILLER_0_7_113
*356 FILLER_0_7_3
*357 FILLER_0_7_35
*358 FILLER_0_7_47
*359 FILLER_0_7_55
*360 FILLER_0_7_57
*361 FILLER_0_7_69
*362 FILLER_0_7_7
*363 FILLER_0_7_77
*364 FILLER_0_7_83
*365 FILLER_0_7_95
*366 FILLER_0_8_11
*367 FILLER_0_8_118
*368 FILLER_0_8_26
*369 FILLER_0_8_29
*370 FILLER_0_8_3
*371 FILLER_0_8_33
*372 FILLER_0_8_41
*373 FILLER_0_8_53
*374 FILLER_0_8_62
*375 FILLER_0_8_70
*376 FILLER_0_8_79
*377 FILLER_0_8_83
*378 FILLER_0_8_85
*379 FILLER_0_8_98
*380 FILLER_0_9_108
*381 FILLER_0_9_113
*382 FILLER_0_9_15
*383 FILLER_0_9_27
*384 FILLER_0_9_3
*385 FILLER_0_9_36
*386 FILLER_0_9_42
*387 FILLER_0_9_57
*388 FILLER_0_9_70
*389 FILLER_0_9_74
*390 FILLER_0_9_93
*391 PHY_EDGE_ROW_0_Left_20
*392 PHY_EDGE_ROW_0_Right_0
*393 PHY_EDGE_ROW_10_Left_30
*394 PHY_EDGE_ROW_10_Right_10
*395 PHY_EDGE_ROW_11_Left_31
*396 PHY_EDGE_ROW_11_Right_11
*397 PHY_EDGE_ROW_12_Left_32
*398 PHY_EDGE_ROW_12_Right_12
*399 PHY_EDGE_ROW_13_Left_33
*400 PHY_EDGE_ROW_13_Right_13
*401 PHY_EDGE_ROW_14_Left_34
*402 PHY_EDGE_ROW_14_Right_14
*403 PHY_EDGE_ROW_15_Left_35
*404 PHY_EDGE_ROW_15_Right_15
*405 PHY_EDGE_ROW_16_Left_36
*406 PHY_EDGE_ROW_16_Right_16
*407 PHY_EDGE_ROW_17_Left_37
*408 PHY_EDGE_ROW_17_Right_17
*409 PHY_EDGE_ROW_18_Left_38
*410 PHY_EDGE_ROW_18_Right_18
*411 PHY_EDGE_ROW_19_Left_39
*412 PHY_EDGE_ROW_19_Right_19
*413 PHY_EDGE_ROW_1_Left_21
*414 PHY_EDGE_ROW_1_Right_1
*415 PHY_EDGE_ROW_2_Left_22
*416 PHY_EDGE_ROW_2_Right_2
*417 PHY_EDGE_ROW_3_Left_23
*418 PHY_EDGE_ROW_3_Right_3
*419 PHY_EDGE_ROW_4_Left_24
*420 PHY_EDGE_ROW_4_Right_4
*421 PHY_EDGE_ROW_5_Left_25
*422 PHY_EDGE_ROW_5_Right_5
*423 PHY_EDGE_ROW_6_Left_26
*424 PHY_EDGE_ROW_6_Right_6
*425 PHY_EDGE_ROW_7_Left_27
*426 PHY_EDGE_ROW_7_Right_7
*427 PHY_EDGE_ROW_8_Left_28
*428 PHY_EDGE_ROW_8_Right_8
*429 PHY_EDGE_ROW_9_Left_29
*430 PHY_EDGE_ROW_9_Right_9
*431 TAP_TAPCELL_ROW_0_40
*432 TAP_TAPCELL_ROW_0_41
*433 TAP_TAPCELL_ROW_0_42
*434 TAP_TAPCELL_ROW_0_43
*435 TAP_TAPCELL_ROW_10_62
*436 TAP_TAPCELL_ROW_10_63
*437 TAP_TAPCELL_ROW_11_64
*438 TAP_TAPCELL_ROW_11_65
*439 TAP_TAPCELL_ROW_12_66
*440 TAP_TAPCELL_ROW_12_67
*441 TAP_TAPCELL_ROW_13_68
*442 TAP_TAPCELL_ROW_13_69
*443 TAP_TAPCELL_ROW_14_70
*444 TAP_TAPCELL_ROW_14_71
*445 TAP_TAPCELL_ROW_15_72
*446 TAP_TAPCELL_ROW_15_73
*447 TAP_TAPCELL_ROW_16_74
*448 TAP_TAPCELL_ROW_16_75
*449 TAP_TAPCELL_ROW_17_76
*450 TAP_TAPCELL_ROW_17_77
*451 TAP_TAPCELL_ROW_18_78
*452 TAP_TAPCELL_ROW_18_79
*453 TAP_TAPCELL_ROW_19_80
*454 TAP_TAPCELL_ROW_19_81
*455 TAP_TAPCELL_ROW_19_82
*456 TAP_TAPCELL_ROW_19_83
*457 TAP_TAPCELL_ROW_1_44
*458 TAP_TAPCELL_ROW_1_45
*459 TAP_TAPCELL_ROW_2_46
*460 TAP_TAPCELL_ROW_2_47
*461 TAP_TAPCELL_ROW_3_48
*462 TAP_TAPCELL_ROW_3_49
*463 TAP_TAPCELL_ROW_4_50
*464 TAP_TAPCELL_ROW_4_51
*465 TAP_TAPCELL_ROW_5_52
*466 TAP_TAPCELL_ROW_5_53
*467 TAP_TAPCELL_ROW_6_54
*468 TAP_TAPCELL_ROW_6_55
*469 TAP_TAPCELL_ROW_7_56
*470 TAP_TAPCELL_ROW_7_57
*471 TAP_TAPCELL_ROW_8_58
*472 TAP_TAPCELL_ROW_8_59
*473 TAP_TAPCELL_ROW_9_60
*474 TAP_TAPCELL_ROW_9_61
*475 _119_
*476 _120_
*477 _121_
*478 _122_
*479 _123_
*480 _124_
*481 _125_
*482 _126_
*483 _127_
*484 _128_
*485 _129_
*486 _130_
*487 _131_
*488 _132_
*489 _133_
*490 _134_
*491 _135_
*492 _136_
*493 _137_
*494 _138_
*495 _139_
*496 _140_
*497 _141_
*498 _142_
*499 _143_
*500 _144_
*501 _145_
*502 _146_
*503 _147_
*504 _148_
*505 _149_
*506 _150_
*507 _151_
*508 _152_
*509 _153_
*510 _154_
*511 _155_
*512 _156_
*513 _157_
*514 _158_
*515 _159_
*516 _160_
*517 _161_
*518 _162_
*519 _163_
*520 _164_
*521 _165_
*522 _166_
*523 _167_
*524 _168_
*525 _169_
*526 _170_
*527 _171_
*528 _172_
*529 _173_
*530 _174_
*531 _175_
*532 _176_
*533 _177_
*534 _178_
*535 _179_
*536 _180_
*537 _181_
*538 _182_
*539 _183_
*540 _184_
*541 _185_
*542 _186_
*543 _187_
*544 _188_
*545 _189_
*546 _190_
*547 _191_
*548 _192_
*549 _193_
*550 _194_
*551 _195_
*552 _196_
*553 _197_
*554 _198_
*555 _199_
*556 _200_
*557 _201_
*558 _202_
*559 _203_
*560 _204_
*561 _205_
*562 _206_
*563 _207_
*564 _208_
*565 _209_
*566 _210_
*567 _211_
*568 _212_
*569 _213_
*570 _214_
*571 _215_
*572 _216_
*573 _217_
*574 _218_
*575 _219_
*576 _220_
*577 _221_
*578 _222_
*579 _223_
*580 _224_
*581 _225_
*582 _226_
*583 _227_
*584 _228_
*585 _229_
*586 _230_
*587 _231_
*588 _232_
*589 _233_
*590 _234_
*591 _235_
*592 _236_
*593 _237_
*594 _238_
*595 _239_
*596 _240_
*597 _241_
*598 _242_
*599 _243_
*600 _244_
*601 _245_
*602 _246_
*603 _247_
*604 _248_
*605 _249_
*606 _250_
*607 clkbuf_0_clk
*608 clkbuf_1_0__f_clk
*609 clkbuf_1_1__f_clk
*610 clkload0
*611 fanout19
*612 fanout20
*613 hold1
*614 hold2
*615 hold3
*616 input1
*617 input2
*618 input3
*619 input4
*620 input5
*621 input6
*622 input7
*623 input8
*624 input9
*625 output10
*626 output11
*627 output12
*628 output13
*629 output14
*630 output15
*631 output16
*632 output17
*633 output18

*PORTS
clk I
current[0] I
current[1] I
current[2] I
current[3] I
current[4] I
current[5] I
current[6] I
current[7] I
reset I
spike O
voltage[0] O
voltage[1] O
voltage[2] O
voltage[3] O
voltage[4] O
voltage[5] O
voltage[6] O
voltage[7] O

*D_NET *3 0.00576857
*CONN
*P clk I
*I *607:A I *D sky130_fd_sc_hd__clkbuf_16
*CAP
1 clk 0.00277663
2 *607:A 0
3 *3:19 0.00277663
4 *3:19 *518:A1 0
5 *3:19 *624:A 5.16639e-05
6 *3:19 *79:14 0.000151678
7 *3:19 *137:53 1.19692e-05
*RES
1 clk *3:19 47.7869 
2 *3:19 *607:A 23 
*END

*D_NET *4 0.00103299
*CONN
*P current[0] I
*I *616:A I *D sky130_fd_sc_hd__buf_1
*CAP
1 current[0] 0.000516497
2 *616:A 0.000516497
3 *616:A voltage[0] 0
*RES
1 current[0] *616:A 48.5643 
*END

*D_NET *5 0.000502725
*CONN
*P current[1] I
*I *617:A I *D sky130_fd_sc_hd__clkbuf_2
*CAP
1 current[1] 0.000251362
2 *617:A 0.000251362
3 *617:A *618:A 0
*RES
1 current[1] *617:A 47.1648 
*END

*D_NET *6 0.000642337
*CONN
*P current[2] I
*I *618:A I *D sky130_fd_sc_hd__buf_1
*CAP
1 current[2] 0.000282047
2 *618:A 0.000282047
3 *618:A *619:A 7.82427e-05
4 *617:A *618:A 0
*RES
1 current[2] *618:A 48.8397 
*END

*D_NET *7 0.000542228
*CONN
*P current[3] I
*I *619:A I *D sky130_fd_sc_hd__clkbuf_1
*CAP
1 current[3] 0.000206427
2 *619:A 0.000206427
3 *619:A voltage[3] 5.11305e-05
4 *618:A *619:A 7.82427e-05
*RES
1 current[3] *619:A 47.7832 
*END

*D_NET *8 0.000684547
*CONN
*P current[4] I
*I *620:A I *D sky130_fd_sc_hd__buf_1
*CAP
1 current[4] 0.000310753
2 *620:A 0.000310753
3 *620:A voltage[4] 6.30405e-05
*RES
1 current[4] *620:A 49.1918 
*END

*D_NET *9 0.00119052
*CONN
*P current[5] I
*I *621:A I *D sky130_fd_sc_hd__clkbuf_1
*CAP
1 current[5] 0.000595261
2 *621:A 0
3 *9:9 0.000595261
4 *9:9 *622:A 0
*RES
1 current[5] *9:9 27.3871 
2 *9:9 *621:A 23 
*END

*D_NET *10 0.00107276
*CONN
*P current[6] I
*I *622:A I *D sky130_fd_sc_hd__clkbuf_1
*CAP
1 current[6] 0.000536378
2 *622:A 0.000536378
3 *622:A *623:A 0
4 *9:9 *622:A 0
*RES
1 current[6] *622:A 49.4343 
*END

*D_NET *11 0.00107808
*CONN
*P current[7] I
*I *623:A I *D sky130_fd_sc_hd__buf_1
*CAP
1 current[7] 0.00053616
2 *623:A 0.00053616
3 *623:A voltage[5] 0
4 *623:A *151:25 5.75756e-06
5 *622:A *623:A 0
*RES
1 current[7] *623:A 49.4343 
*END

*D_NET *12 0.000561647
*CONN
*P reset I
*I *624:A I *D sky130_fd_sc_hd__buf_2
*CAP
1 reset 0.000201872
2 *624:A 0.000201872
3 *624:A voltage[7] 6.91028e-05
4 *624:A *633:A 2.31532e-05
5 *624:A *153:8 1.39826e-05
6 *3:19 *624:A 5.16639e-05
*RES
1 reset *624:A 47.7832 
*END

*D_NET *13 0.000734079
*CONN
*P spike O
*I *625:X O *D sky130_fd_sc_hd__buf_2
*CAP
1 spike 0.000358498
2 *625:X 0.000358498
3 spike *145:8 1.70831e-05
*RES
1 *625:X spike 48.7952 
*END

*D_NET *14 0.000929076
*CONN
*P voltage[0] O
*I *626:X O *D sky130_fd_sc_hd__buf_2
*CAP
1 voltage[0] 0.000464538
2 *626:X 0.000464538
3 voltage[0] voltage[1] 0
4 *616:A voltage[0] 0
*RES
1 *626:X voltage[0] 47.0936 
*END

*D_NET *15 0.000935434
*CONN
*P voltage[1] O
*I *627:X O *D sky130_fd_sc_hd__buf_2
*CAP
1 voltage[1] 0.000467717
2 *627:X 0.000467717
3 voltage[1] voltage[2] 0
4 voltage[0] voltage[1] 0
*RES
1 *627:X voltage[1] 47.0936 
*END

*D_NET *16 0.000946216
*CONN
*P voltage[2] O
*I *628:X O *D sky130_fd_sc_hd__buf_2
*CAP
1 voltage[2] 0.00045511
2 *628:X 0.00045511
3 voltage[2] *148:45 3.59965e-05
4 voltage[1] voltage[2] 0
*RES
1 *628:X voltage[2] 47.0936 
*END

*D_NET *17 0.000522341
*CONN
*P voltage[3] O
*I *629:X O *D sky130_fd_sc_hd__buf_2
*CAP
1 voltage[3] 0.000235605
2 *629:X 0.000235605
3 *619:A voltage[3] 5.11305e-05
*RES
1 *629:X voltage[3] 47.1648 
*END

*D_NET *18 0.000728795
*CONN
*P voltage[4] O
*I *630:X O *D sky130_fd_sc_hd__buf_2
*CAP
1 voltage[4] 0.000332877
2 *630:X 0.000332877
3 *620:A voltage[4] 6.30405e-05
*RES
1 *630:X voltage[4] 48.5734 
*END

*D_NET *19 0.00105728
*CONN
*P voltage[5] O
*I *631:X O *D sky130_fd_sc_hd__clkbuf_4
*CAP
1 voltage[5] 0.000528642
2 *631:X 0.000528642
3 voltage[5] voltage[6] 0
4 *623:A voltage[5] 0
*RES
1 *631:X voltage[5] 49.0821 
*END

*D_NET *20 0.00119818
*CONN
*P voltage[6] O
*I *632:X O *D sky130_fd_sc_hd__clkbuf_4
*CAP
1 voltage[6] 0.000582986
2 *632:X 0.000582986
3 voltage[6] *632:A 3.22051e-05
4 voltage[5] voltage[6] 0
*RES
1 *632:X voltage[6] 49.9729 
*END

*D_NET *21 0.000636788
*CONN
*P voltage[7] O
*I *633:X O *D sky130_fd_sc_hd__buf_2
*CAP
1 voltage[7] 0.000273568
2 *633:X 0.000273568
3 voltage[7] *143:48 2.05503e-05
4 *624:A voltage[7] 6.91028e-05
*RES
1 *633:X voltage[7] 48.0909 
*END

*D_NET *22 0.002738
*CONN
*I *578:C1 I *D sky130_fd_sc_hd__o311a_1
*I *596:RESET_B I *D sky130_fd_sc_hd__dfrtp_1
*I *577:Y O *D sky130_fd_sc_hd__inv_2
*CAP
1 *578:C1 0
2 *596:RESET_B 0.000617443
3 *577:Y 0
4 *22:32 0.000209959
5 *22:4 0.000827401
6 *596:RESET_B *572:A1 3.33495e-05
7 *596:RESET_B *572:A2 0.000141052
8 *596:RESET_B *572:B1 8.15864e-05
9 *596:RESET_B *596:CLK 7.93566e-05
10 *596:RESET_B *35:10 0.00019766
11 *22:32 *518:B1 0.000141352
12 *22:32 *572:A2 8.52481e-05
13 *22:32 *578:B1 5.55743e-06
14 *22:32 *583:A 5.7409e-05
15 *22:32 *79:14 0.000216633
16 *22:32 *82:10 2.53095e-05
17 *22:32 *166:38 1.86869e-05
*RES
1 *577:Y *22:4 23 
2 *22:4 *596:RESET_B 42.9775 
3 *22:4 *22:32 36.1314 
4 *22:32 *578:C1 23 
*END

*D_NET *23 0.000497318
*CONN
*I *597:RESET_B I *D sky130_fd_sc_hd__dfrtp_1
*I *584:Y O *D sky130_fd_sc_hd__inv_2
*CAP
1 *597:RESET_B 9.29376e-05
2 *584:Y 9.24516e-05
3 *23:8 0.000185389
4 *597:RESET_B *517:A 5.5792e-05
5 *597:RESET_B *142:27 7.07477e-05
*RES
1 *584:Y *23:8 39.5536 
2 *23:8 *597:RESET_B 16.9782 
*END

*D_NET *24 0.000458673
*CONN
*I *598:RESET_B I *D sky130_fd_sc_hd__dfrtp_2
*I *585:Y O *D sky130_fd_sc_hd__inv_2
*CAP
1 *598:RESET_B 0.000141828
2 *585:Y 0.000141828
3 *598:RESET_B *585:A 5.58003e-05
4 *598:RESET_B *142:72 6.34171e-05
5 *598:RESET_B *170:10 5.58003e-05
*RES
1 *585:Y *598:RESET_B 25.9311 
*END

*D_NET *25 0.000590038
*CONN
*I *599:RESET_B I *D sky130_fd_sc_hd__dfrtp_2
*I *586:Y O *D sky130_fd_sc_hd__inv_2
*CAP
1 *599:RESET_B 0
2 *586:Y 0.000275508
3 *25:10 0.000275508
4 *25:10 *144:10 0
5 *25:10 *146:14 3.90213e-05
*RES
1 *586:Y *25:10 42.3086 
2 *25:10 *599:RESET_B 15 
*END

*D_NET *26 0.000243445
*CONN
*I *600:RESET_B I *D sky130_fd_sc_hd__dfrtp_1
*I *587:Y O *D sky130_fd_sc_hd__inv_2
*CAP
1 *600:RESET_B 0
2 *587:Y 7.37671e-05
3 *26:8 7.37671e-05
4 *26:8 *627:A 1.29848e-05
5 *26:8 *90:82 8.29264e-05
*RES
1 *587:Y *26:8 39.5536 
2 *26:8 *600:RESET_B 15 
*END

*D_NET *27 0.000465438
*CONN
*I *601:RESET_B I *D sky130_fd_sc_hd__dfrtp_4
*I *588:Y O *D sky130_fd_sc_hd__inv_2
*CAP
1 *601:RESET_B 0
2 *588:Y 0.000120606
3 *27:8 0.000120606
4 *27:8 *91:8 0.000224226
5 *27:8 *142:12 0
6 *27:8 *142:14 0
*RES
1 *588:Y *27:8 40.9621 
2 *27:8 *601:RESET_B 15 
*END

*D_NET *28 0.000590124
*CONN
*I *602:RESET_B I *D sky130_fd_sc_hd__dfrtp_1
*I *589:Y O *D sky130_fd_sc_hd__inv_2
*CAP
1 *602:RESET_B 0
2 *589:Y 0.000203445
3 *28:10 0.000203445
4 *28:10 *87:55 0.000113621
5 *28:10 *148:54 6.96139e-05
*RES
1 *589:Y *28:10 41.6043 
2 *28:10 *602:RESET_B 15 
*END

*D_NET *29 0.000531944
*CONN
*I *603:RESET_B I *D sky130_fd_sc_hd__dfrtp_1
*I *590:Y O *D sky130_fd_sc_hd__inv_2
*CAP
1 *603:RESET_B 0
2 *590:Y 0.000145308
3 *29:10 0.000145308
4 *29:10 *61:6 5.82853e-05
5 *29:10 *143:10 6.15719e-05
6 *29:10 *143:12 8.50366e-05
7 *29:10 *143:64 3.64337e-05
*RES
1 *590:Y *29:10 40.8793 
2 *29:10 *603:RESET_B 15 
*END

*D_NET *30 0.000401319
*CONN
*I *604:RESET_B I *D sky130_fd_sc_hd__dfrtp_1
*I *591:Y O *D sky130_fd_sc_hd__inv_2
*CAP
1 *604:RESET_B 5.79882e-05
2 *591:Y 5.79882e-05
3 *604:RESET_B *41:14 0.000228447
4 *604:RESET_B *151:10 5.68958e-05
*RES
1 *591:Y *604:RESET_B 25.4546 
*END

*D_NET *31 0.000419761
*CONN
*I *605:RESET_B I *D sky130_fd_sc_hd__dfrtp_1
*I *592:Y O *D sky130_fd_sc_hd__inv_2
*CAP
1 *605:RESET_B 0
2 *592:Y 0.000199506
3 *31:10 0.000199506
4 *31:10 *166:21 2.07484e-05
5 *31:10 *166:75 0
*RES
1 *592:Y *31:10 41.2314 
2 *31:10 *605:RESET_B 15 
*END

*D_NET *32 0.000323146
*CONN
*I *606:RESET_B I *D sky130_fd_sc_hd__dfrtp_4
*I *593:Y O *D sky130_fd_sc_hd__inv_2
*CAP
1 *606:RESET_B 0
2 *593:Y 0.000118264
3 *32:10 0.000118264
4 *32:10 *606:CLK 2.8661e-05
5 *32:10 *166:75 5.79559e-05
*RES
1 *593:Y *32:10 40.175 
2 *32:10 *606:RESET_B 15 
*END

*D_NET *33 0.000361498
*CONN
*I *594:D I *D sky130_fd_sc_hd__dfxtp_1
*I *580:X O *D sky130_fd_sc_hd__clkbuf_1
*CAP
1 *594:D 1.2998e-05
2 *580:X 0.000138285
3 *33:10 0.000151283
4 *33:10 *142:35 5.89327e-05
*RES
1 *580:X *33:10 40.5271 
2 *33:10 *594:D 38.1916 
*END

*D_NET *34 0.000525852
*CONN
*I *595:D I *D sky130_fd_sc_hd__dfxtp_1
*I *582:X O *D sky130_fd_sc_hd__clkbuf_1
*CAP
1 *595:D 1.31802e-05
2 *582:X 0.000179278
3 *34:10 0.000192458
4 *34:10 *142:80 0.000140935
*RES
1 *582:X *34:10 41.3557 
2 *34:10 *595:D 38.1916 
*END

*D_NET *35 0.000440928
*CONN
*I *596:D I *D sky130_fd_sc_hd__dfrtp_1
*I *572:X O *D sky130_fd_sc_hd__a21o_1
*CAP
1 *596:D 0
2 *572:X 0.000121634
3 *35:10 0.000121634
4 *596:RESET_B *35:10 0.00019766
*RES
1 *572:X *35:10 40.5271 
2 *35:10 *596:D 38 
*END

*D_NET *36 0.00189198
*CONN
*I *599:D I *D sky130_fd_sc_hd__dfrtp_2
*I *571:X O *D sky130_fd_sc_hd__a31o_1
*CAP
1 *599:D 0.000785918
2 *571:X 6.00092e-05
3 *36:8 0.000845928
4 *599:D *146:14 5.0155e-05
5 *599:D *146:23 6.49264e-05
6 *36:8 *144:57 8.50457e-05
*RES
1 *571:X *36:8 39.2014 
2 *36:8 *599:D 48.1707 
*END

*D_NET *37 0.00030312
*CONN
*I *600:D I *D sky130_fd_sc_hd__dfrtp_1
*I *568:X O *D sky130_fd_sc_hd__o22a_1
*CAP
1 *600:D 0
2 *568:X 4.8649e-05
3 *37:8 4.8649e-05
4 *37:8 *90:53 8.57577e-05
5 *37:8 *142:104 7.66914e-06
6 *37:8 *148:45 0.000112396
*RES
1 *568:X *37:8 39.5536 
2 *37:8 *600:D 38 
*END

*D_NET *38 0.00116368
*CONN
*I *601:D I *D sky130_fd_sc_hd__dfrtp_4
*I *561:X O *D sky130_fd_sc_hd__a311o_1
*CAP
1 *601:D 0
2 *561:X 0.000379416
3 *38:10 0.000379416
4 *38:10 *561:A2 2.75893e-05
5 *38:10 *588:A 7.91044e-05
6 *38:10 *86:14 0.000138718
7 *38:10 *91:23 1.84917e-05
8 *38:10 *129:23 0.000140949
*RES
1 *561:X *38:10 44.3386 
2 *38:10 *601:D 38 
*END

*D_NET *39 0.00115496
*CONN
*I *602:D I *D sky130_fd_sc_hd__dfrtp_1
*I *557:X O *D sky130_fd_sc_hd__o21ba_1
*CAP
1 *602:D 0
2 *557:X 0.000305182
3 *39:10 0.000305182
4 *39:10 *557:A2 4.46854e-05
5 *39:10 *90:53 0.000499912
*RES
1 *557:X *39:10 44.7736 
2 *39:10 *602:D 38 
*END

*D_NET *40 0.00085477
*CONN
*I *603:D I *D sky130_fd_sc_hd__dfrtp_1
*I *550:X O *D sky130_fd_sc_hd__clkbuf_1
*CAP
1 *603:D 0
2 *550:X 0.000425631
3 *40:10 0.000425631
4 *40:10 *143:48 3.50862e-06
*RES
1 *550:X *40:10 43.8621 
2 *40:10 *603:D 38 
*END

*D_NET *41 0.00354556
*CONN
*I *604:D I *D sky130_fd_sc_hd__dfrtp_1
*I *542:Y O *D sky130_fd_sc_hd__a31oi_1
*CAP
1 *604:D 0
2 *542:Y 6.11653e-05
3 *41:14 0.00137255
4 *41:8 0.00143372
5 *41:8 *53:10 2.3178e-05
6 *41:8 *154:23 2.04934e-05
7 *41:14 *151:10 0.000392484
8 *41:14 *151:19 1.3523e-05
9 *604:RESET_B *41:14 0.000228447
*RES
1 *542:Y *41:8 39.2014 
2 *41:8 *41:14 34.6993 
3 *41:14 *604:D 23 
*END

*D_NET *42 0.000969452
*CONN
*I *605:D I *D sky130_fd_sc_hd__dfrtp_1
*I *534:X O *D sky130_fd_sc_hd__o21ba_1
*CAP
1 *605:D 0
2 *534:X 0.000467415
3 *42:6 0.000467415
4 *42:6 *152:10 3.46216e-05
*RES
1 *534:X *42:6 31.7207 
2 *42:6 *605:D 23 
*END

*D_NET *43 0.00130081
*CONN
*I *606:D I *D sky130_fd_sc_hd__dfrtp_4
*I *525:X O *D sky130_fd_sc_hd__o21a_1
*CAP
1 *606:D 0.000351225
2 *525:X 0.00023756
3 *43:8 0.000588785
4 *606:D *606:CLK 8.21172e-05
5 *43:8 *136:12 4.11274e-05
*RES
1 *525:X *43:8 42.3707 
2 *43:8 *606:D 44.3386 
*END

*D_NET *44 0.000636239
*CONN
*I *531:B I *D sky130_fd_sc_hd__xor2_1
*I *540:A1 I *D sky130_fd_sc_hd__a21o_1
*I *530:X O *D sky130_fd_sc_hd__or2_1
*CAP
1 *531:B 0
2 *540:A1 9.72522e-05
3 *530:X 0
4 *44:21 9.41153e-05
5 *44:4 0.000191368
6 *540:A1 *540:A2 9.66382e-05
7 *540:A1 *98:45 1.59071e-05
8 *44:21 *53:10 0
9 *44:21 *154:27 0.000140958
*RES
1 *530:X *44:4 23 
2 *44:4 *540:A1 25.4443 
3 *44:4 *44:21 31.9057 
4 *44:21 *531:B 23 
*END

*D_NET *45 0.000555516
*CONN
*I *532:A2 I *D sky130_fd_sc_hd__o21a_1
*I *531:X O *D sky130_fd_sc_hd__xor2_1
*CAP
1 *532:A2 0.000211338
2 *531:X 0.000211338
3 *532:A2 *151:19 0.000132841
*RES
1 *531:X *532:A2 49.9564 
*END

*D_NET *46 0.00122454
*CONN
*I *533:B1 I *D sky130_fd_sc_hd__o31a_1
*I *532:X O *D sky130_fd_sc_hd__o21a_1
*CAP
1 *533:B1 6.0769e-05
2 *532:X 0.000235659
3 *46:8 0.000296428
4 *533:B1 *533:A2 0.000233609
5 *533:B1 *139:16 0.000146822
6 *46:8 *541:B 6.78718e-05
7 *46:8 *137:68 0.000140644
8 *46:8 *137:91 4.27392e-05
*RES
1 *532:X *46:8 43.075 
2 *46:8 *533:B1 40.5271 
*END

*D_NET *47 0.000707795
*CONN
*I *534:B1_N I *D sky130_fd_sc_hd__o21ba_1
*I *533:X O *D sky130_fd_sc_hd__o31a_1
*CAP
1 *534:B1_N 0
2 *533:X 0.000130769
3 *47:8 0.000130769
4 *47:8 *534:A1 0.000146822
5 *47:8 *90:24 5.3304e-05
6 *47:8 *136:6 0.000189292
7 *47:8 *152:10 5.68385e-05
*RES
1 *533:X *47:8 27.4536 
2 *47:8 *534:B1_N 23 
*END

*D_NET *48 0.00110218
*CONN
*I *536:B1 I *D sky130_fd_sc_hd__a211oi_1
*I *537:A1 I *D sky130_fd_sc_hd__o211a_1
*I *535:Y O *D sky130_fd_sc_hd__inv_2
*CAP
1 *536:B1 0
2 *537:A1 0
3 *535:Y 0.000160328
4 *48:14 0.000102888
5 *48:8 0.000263216
6 *48:8 *536:A2 5.56279e-05
7 *48:8 *103:14 9.65021e-05
8 *48:8 *119:25 2.93335e-05
9 *48:14 *508:A2 0.000139865
10 *48:14 *103:10 6.38342e-05
11 *48:14 *119:25 0.000190587
*RES
1 *535:Y *48:8 26.0243 
2 *48:8 *48:14 32.61 
3 *48:14 *537:A1 23 
4 *48:8 *536:B1 23 
*END

*D_NET *49 0.000590286
*CONN
*I *538:B I *D sky130_fd_sc_hd__or3_1
*I *536:Y O *D sky130_fd_sc_hd__a211oi_1
*CAP
1 *538:B 0
2 *536:Y 0.000192206
3 *49:10 0.000192206
4 *49:10 *508:A2 6.11994e-05
5 *49:10 *508:C1 7.5654e-05
6 *49:10 *103:10 1.19796e-05
7 *49:10 *119:12 5.70419e-05
*RES
1 *536:Y *49:10 42.4121 
2 *49:10 *538:B 38 
*END

*D_NET *50 0.000128107
*CONN
*I *538:C I *D sky130_fd_sc_hd__or3_1
*I *537:X O *D sky130_fd_sc_hd__o211a_1
*CAP
1 *538:C 6.40534e-05
2 *537:X 6.40534e-05
*RES
1 *537:X *538:C 47.1186 
*END

*D_NET *51 0.00481514
*CONN
*I *542:A2 I *D sky130_fd_sc_hd__a31oi_1
*I *538:X O *D sky130_fd_sc_hd__or3_1
*CAP
1 *542:A2 0
2 *538:X 0.000956908
3 *51:14 0.000956908
4 *51:14 *511:B1 5.3304e-05
5 *51:14 *538:A 0.0011132
6 *51:14 *541:B 0.000169331
7 *51:14 *542:A1 2.61873e-05
8 *51:14 *542:B1 7.47606e-05
9 *51:14 *90:14 0.000787942
10 *51:14 *90:16 2.07484e-05
11 *51:14 *120:42 0.000315268
12 *51:14 *123:10 9.66585e-05
13 *51:14 *137:91 0.000243922
*RES
1 *538:X *51:14 49.68 
2 *51:14 *542:A2 23 
*END

*D_NET *52 0.000674638
*CONN
*I *540:A2 I *D sky130_fd_sc_hd__a21o_1
*I *539:Y O *D sky130_fd_sc_hd__nand2_1
*CAP
1 *540:A2 0.000136864
2 *539:Y 0.000136864
3 *540:A2 *530:B 1.71761e-05
4 *540:A2 *539:B 1.37297e-05
5 *540:A2 *98:35 0.000144494
6 *540:A2 *98:45 7.32375e-05
7 *540:A2 *98:77 5.56356e-05
8 *540:A1 *540:A2 9.66382e-05
*RES
1 *539:Y *540:A2 49.9771 
*END

*D_NET *53 0.000953362
*CONN
*I *542:A3 I *D sky130_fd_sc_hd__a31oi_1
*I *540:X O *D sky130_fd_sc_hd__a21o_1
*CAP
1 *542:A3 0
2 *540:X 0.000278523
3 *53:10 0.000278523
4 *53:10 *540:B1 1.84917e-05
5 *53:10 *153:31 0.000317907
6 *53:10 *153:66 3.67392e-05
7 *53:10 *154:23 0
8 *53:10 *154:27 0
9 *41:8 *53:10 2.3178e-05
10 *44:21 *53:10 0
*RES
1 *540:X *53:10 43.3443 
2 *53:10 *542:A3 38 
*END

*D_NET *54 0.000364026
*CONN
*I *542:B1 I *D sky130_fd_sc_hd__a31oi_1
*I *541:Y O *D sky130_fd_sc_hd__nor2_1
*CAP
1 *542:B1 0.000144633
2 *541:Y 0.000144633
3 *51:14 *542:B1 7.47606e-05
*RES
1 *541:Y *542:B1 48.5479 
*END

*D_NET *55 0.000628479
*CONN
*I *544:B I *D sky130_fd_sc_hd__nand2_1
*I *543:X O *D sky130_fd_sc_hd__a31o_1
*CAP
1 *544:B 0
2 *543:X 0.000177531
3 *55:8 0.000177531
4 *55:8 *504:C1 7.03766e-05
5 *55:8 *81:12 0
6 *55:8 *102:34 0
7 *55:8 *108:53 0.000143166
8 *55:8 *112:53 1.39826e-05
9 *55:8 *116:10 4.58924e-05
*RES
1 *543:X *55:8 42.7229 
2 *55:8 *544:B 38 
*END

*D_NET *56 0.00153987
*CONN
*I *548:A3 I *D sky130_fd_sc_hd__a31o_1
*I *544:Y O *D sky130_fd_sc_hd__nand2_1
*CAP
1 *548:A3 0.000292875
2 *544:Y 7.78216e-05
3 *56:8 0.000370697
4 *548:A3 *548:A2 0.000496345
5 *548:A3 *116:31 1.57659e-05
6 *548:A3 *150:42 0.000145163
7 *56:8 *115:10 0.000141201
8 *56:8 *116:10 0
*RES
1 *544:Y *56:8 39.9057 
2 *56:8 *548:A3 45.2914 
*END

*D_NET *57 0.00126034
*CONN
*I *546:B I *D sky130_fd_sc_hd__nand2_1
*I *555:A1 I *D sky130_fd_sc_hd__a21o_1
*I *545:X O *D sky130_fd_sc_hd__or2_1
*CAP
1 *546:B 0
2 *555:A1 0.000138821
3 *545:X 0.000185707
4 *57:19 7.733e-05
5 *57:6 0.000401859
6 *555:A1 *545:B 3.06889e-05
7 *555:A1 *82:10 8.06804e-06
8 *57:6 *545:B 1.12268e-05
9 *57:6 *66:8 0.000233211
10 *57:19 *547:B1 1.37349e-05
11 *57:19 *130:10 5.31444e-05
12 *57:19 *131:55 8.4047e-05
13 *57:19 *132:42 2.24973e-05
*RES
1 *545:X *57:6 26.0036 
2 *57:6 *555:A1 24.5743 
3 *57:6 *57:19 31.9057 
4 *57:19 *546:B 23 
*END

*D_NET *58 0.000360008
*CONN
*I *547:A2 I *D sky130_fd_sc_hd__a21oi_1
*I *546:Y O *D sky130_fd_sc_hd__nand2_1
*CAP
1 *547:A2 0
2 *546:Y 7.29621e-05
3 *58:8 7.29621e-05
4 *58:8 *547:B1 4.83734e-05
5 *58:8 *132:42 0.00016571
*RES
1 *546:Y *58:8 40.2579 
2 *58:8 *547:A2 38 
*END

*D_NET *59 0.00153835
*CONN
*I *548:B1 I *D sky130_fd_sc_hd__a31o_1
*I *547:Y O *D sky130_fd_sc_hd__a21oi_1
*CAP
1 *548:B1 0
2 *547:Y 0.000420422
3 *59:8 0.000420422
4 *59:8 *60:10 7.64059e-06
5 *59:8 *91:80 0.000106486
6 *59:8 *97:16 0.000583375
*RES
1 *547:Y *59:8 32.2179 
2 *59:8 *548:B1 23 
*END

*D_NET *60 0.00122751
*CONN
*I *549:A1 I *D sky130_fd_sc_hd__mux2_1
*I *548:X O *D sky130_fd_sc_hd__a31o_1
*CAP
1 *549:A1 0
2 *548:X 0.000423724
3 *60:10 0.000423724
4 *60:10 *548:A2 4.839e-05
5 *60:10 *91:72 0.000100061
6 *60:10 *91:80 0.000120591
7 *60:10 *97:16 0.000103378
8 *59:8 *60:10 7.64059e-06
*RES
1 *548:X *60:10 44.5871 
2 *60:10 *549:A1 38 
*END

*D_NET *61 0.00409772
*CONN
*I *550:A I *D sky130_fd_sc_hd__clkbuf_1
*I *549:X O *D sky130_fd_sc_hd__mux2_1
*CAP
1 *550:A 3.93866e-05
2 *549:X 0.00144908
3 *61:6 0.00148847
4 *61:6 *522:A 9.61399e-05
5 *61:6 *549:S 0.000145171
6 *61:6 *590:A 4.65096e-05
7 *61:6 *610:A 0.000278302
8 *61:6 *150:27 0.000303143
9 *61:6 *153:46 9.17365e-05
10 *61:6 *166:38 0.000101506
11 *29:10 *61:6 5.82853e-05
*RES
1 *549:X *61:6 49.825 
2 *61:6 *550:A 23.8493 
*END

*D_NET *62 0.00170204
*CONN
*I *552:B1 I *D sky130_fd_sc_hd__a21oi_1
*I *553:A1 I *D sky130_fd_sc_hd__a31o_1
*I *551:X O *D sky130_fd_sc_hd__or2b_1
*CAP
1 *552:B1 0
2 *553:A1 0
3 *551:X 0.000341549
4 *62:16 9.15214e-05
5 *62:8 0.00043307
6 *62:8 *543:A2 1.61385e-05
7 *62:8 *551:B_N 0.000140939
8 *62:8 *112:23 4.21921e-05
9 *62:8 *112:35 0.000141355
10 *62:8 *112:47 0.000177419
11 *62:16 *553:A2 0.000137525
12 *62:16 *553:B1 5.35652e-05
13 *62:16 *80:12 1.29848e-05
14 *62:16 *108:32 2.58781e-05
15 *62:16 *112:35 8.79053e-05
*RES
1 *551:X *62:8 29.8357 
2 *62:8 *62:16 32.4236 
3 *62:16 *553:A1 23 
4 *62:8 *552:B1 23 
*END

*D_NET *63 0.00164626
*CONN
*I *556:A1 I *D sky130_fd_sc_hd__o211a_1
*I *552:Y O *D sky130_fd_sc_hd__a21oi_1
*CAP
1 *556:A1 0.000321443
2 *552:Y 0.000102434
3 *63:8 0.000423878
4 *556:A1 *576:A 0.000147656
5 *556:A1 *66:8 5.51877e-05
6 *556:A1 *82:10 0.00044169
7 *556:A1 *87:87 4.27329e-05
8 *556:A1 *89:75 6.66937e-05
9 *63:8 *80:12 3.44543e-05
10 *63:8 *112:35 1.0092e-05
*RES
1 *552:Y *63:8 39.9057 
2 *63:8 *556:A1 46.265 
*END

*D_NET *64 0.00118875
*CONN
*I *556:A2 I *D sky130_fd_sc_hd__o211a_1
*I *553:X O *D sky130_fd_sc_hd__a31o_1
*CAP
1 *556:A2 0
2 *553:X 0.000379754
3 *64:10 0.000379754