*SPEF "ieee 1481-1999"
*DESIGN "LIF"
*DATE "12:12:56 Saturday September 28, 2024"
*VENDOR "The OpenROAD Project"
*PROGRAM "OpenROAD"
*VERSION "b16bda7e82721d10566ff7e2b68f1ff0be9f9e38"
*DESIGN_FLOW "NAME_SCOPE LOCAL" "PIN_CAP NONE"
*DIVIDER /
*DELIMITER :
*BUS_DELIMITER []
*T_UNIT 1 NS
*C_UNIT 1 PF
*R_UNIT 1 OHM
*L_UNIT 1 HENRY

*NAME_MAP
*3 clk
*4 current[0]
*5 current[1]
*6 current[2]
*7 current[3]
*8 current[4]
*9 current[5]
*10 current[6]
*11 current[7]
*12 reset
*13 spike
*14 voltage[0]
*15 voltage[1]
*16 voltage[2]
*17 voltage[3]
*18 voltage[4]
*19 voltage[5]
*20 voltage[6]
*21 voltage[7]
*22 _000_
*23 _001_
*24 _002_
*25 _003_
*26 _004_
*27 _005_
*28 _006_
*29 _007_
*30 _008_
*31 _009_
*32 _010_
*33 _011_
*34 _012_
*35 _013_
*36 _014_
*37 _015_
*38 _016_
*39 _017_
*40 _018_
*41 _019_
*42 _020_
*43 _021_
*44 _022_
*45 _023_
*46 _024_
*47 _025_
*48 _026_
*49 _027_
*50 _028_
*51 _029_
*52 _030_
*53 _031_
*54 _032_
*55 _033_
*56 _034_
*57 _035_
*58 _036_
*59 _037_
*60 _038_
*61 _039_
*62 _040_
*63 _041_
*64 _042_
*65 _043_
*66 _044_
*67 _045_
*68 _046_
*69 _047_
*70 _048_
*71 _049_
*72 _050_
*73 _051_
*74 _052_
*75 _053_
*76 _054_
*77 _055_
*78 _056_
*79 _057_
*80 _058_
*81 _059_
*82 _060_
*83 _061_
*84 _062_
*85 _063_
*86 _064_
*87 _065_
*88 _066_
*89 _067_
*90 _068_
*91 _069_
*92 _070_
*93 _071_
*94 _072_
*95 _073_
*96 _074_
*97 _075_
*98 _076_
*99 _077_
*100 _078_
*101 _079_
*102 _080_
*103 _081_
*104 _082_
*105 _083_
*106 _084_
*107 _085_
*108 _086_
*109 _087_
*110 _088_
*111 _089_
*112 _090_
*113 _091_
*114 _092_
*115 _093_
*116 _094_
*117 _095_
*118 _096_
*119 _097_
*120 _098_
*121 _099_
*122 _100_
*123 _101_
*124 _102_
*125 _103_
*126 _104_
*127 _105_
*128 _106_
*129 _107_
*130 _108_
*131 _109_
*132 _110_
*133 _111_
*134 _112_
*135 _113_
*136 _114_
*137 _115_
*138 _116_
*139 _117_
*140 _118_
*141 clknet_0_clk
*142 clknet_1_0__leaf_clk
*143 clknet_1_1__leaf_clk
*144 net1
*145 net10
*146 net11
*147 net12
*148 net13
*149 net14
*150 net15
*151 net16
*152 net17
*153 net18
*154 net19
*155 net2
*156 net20
*157 net21
*158 net22
*159 net23
*160 net3
*161 net4
*162 net5
*163 net6
*164 net7
*165 net8
*166 net9
*167 next_state\[0\]
*168 next_state\[1\]
*169 state\[0\]
*170 state\[1\]
*171 FILLER_0_0_109
*172 FILLER_0_0_113
*173 FILLER_0_0_15
*174 FILLER_0_0_27
*175 FILLER_0_0_29
*176 FILLER_0_0_3
*177 FILLER_0_0_41
*178 FILLER_0_0_46
*179 FILLER_0_0_55
*180 FILLER_0_0_57
*181 FILLER_0_0_63
*182 FILLER_0_0_70
*183 FILLER_0_0_77
*184 FILLER_0_0_83
*185 FILLER_0_0_85
*186 FILLER_0_0_97
*187 FILLER_0_10_103
*188 FILLER_0_10_115
*189 FILLER_0_10_13
*190 FILLER_0_10_32
*191 FILLER_0_10_54
*192 FILLER_0_10_64
*193 FILLER_0_10_7
*194 FILLER_0_10_76
*195 FILLER_0_10_81
*196 FILLER_0_10_85
*197 FILLER_0_10_97
*198 FILLER_0_11_101
*199 FILLER_0_11_109
*200 FILLER_0_11_113
*201 FILLER_0_11_25
*202 FILLER_0_11_3
*203 FILLER_0_11_37
*204 FILLER_0_11_55
*205 FILLER_0_11_66
*206 FILLER_0_11_78
*207 FILLER_0_11_89
*208 FILLER_0_12_103
*209 FILLER_0_12_11
*210 FILLER_0_12_17
*211 FILLER_0_12_21
*212 FILLER_0_12_27
*213 FILLER_0_12_29
*214 FILLER_0_12_3
*215 FILLER_0_12_41
*216 FILLER_0_12_54
*217 FILLER_0_12_66
*218 FILLER_0_12_81
*219 FILLER_0_12_88
*220 FILLER_0_13_108
*221 FILLER_0_13_113
*222 FILLER_0_13_43
*223 FILLER_0_13_55
*224 FILLER_0_13_57
*225 FILLER_0_13_63
*226 FILLER_0_13_68
*227 FILLER_0_13_80
*228 FILLER_0_13_96
*229 FILLER_0_14_111
*230 FILLER_0_14_115
*231 FILLER_0_14_19
*232 FILLER_0_14_27
*233 FILLER_0_14_29
*234 FILLER_0_14_41
*235 FILLER_0_14_56
*236 FILLER_0_14_68
*237 FILLER_0_14_7
*238 FILLER_0_14_76
*239 FILLER_0_14_80
*240 FILLER_0_14_85
*241 FILLER_0_14_99
*242 FILLER_0_15_113
*243 FILLER_0_15_26
*244 FILLER_0_15_34
*245 FILLER_0_15_54
*246 FILLER_0_15_63
*247 FILLER_0_15_71
*248 FILLER_0_15_85
*249 FILLER_0_15_97
*250 FILLER_0_16_117
*251 FILLER_0_16_19
*252 FILLER_0_16_25
*253 FILLER_0_16_29
*254 FILLER_0_16_48
*255 FILLER_0_16_53
*256 FILLER_0_16_65
*257 FILLER_0_16_69
*258 FILLER_0_16_7
*259 FILLER_0_16_74
*260 FILLER_0_16_82
*261 FILLER_0_16_85
*262 FILLER_0_17_109
*263 FILLER_0_17_11
*264 FILLER_0_17_113
*265 FILLER_0_17_3
*266 FILLER_0_17_36
*267 FILLER_0_17_45
*268 FILLER_0_17_54
*269 FILLER_0_17_57
*270 FILLER_0_17_65
*271 FILLER_0_17_86
*272 FILLER_0_18_105
*273 FILLER_0_18_117
*274 FILLER_0_18_29
*275 FILLER_0_18_3
*276 FILLER_0_18_41
*277 FILLER_0_18_48
*278 FILLER_0_18_61
*279 FILLER_0_18_65
*280 FILLER_0_18_76
*281 FILLER_0_18_85
*282 FILLER_0_18_93
*283 FILLER_0_19_109
*284 FILLER_0_19_113
*285 FILLER_0_19_15
*286 FILLER_0_19_27
*287 FILLER_0_19_29
*288 FILLER_0_19_3
*289 FILLER_0_19_41
*290 FILLER_0_19_49
*291 FILLER_0_19_57
*292 FILLER_0_19_65
*293 FILLER_0_19_69
*294 FILLER_0_19_76
*295 FILLER_0_19_83
*296 FILLER_0_19_85
*297 FILLER_0_19_97
*298 FILLER_0_1_107
*299 FILLER_0_1_111
*300 FILLER_0_1_113
*301 FILLER_0_1_30
*302 FILLER_0_1_54
*303 FILLER_0_1_57
*304 FILLER_0_1_63
*305 FILLER_0_1_84
*306 FILLER_0_1_92
*307 FILLER_0_1_97
*308 FILLER_0_2_105
*309 FILLER_0_2_113
*310 FILLER_0_2_29
*311 FILLER_0_2_3
*312 FILLER_0_2_33
*313 FILLER_0_2_45
*314 FILLER_0_2_63
*315 FILLER_0_2_77
*316 FILLER_0_3_11
*317 FILLER_0_3_118
*318 FILLER_0_3_22
*319 FILLER_0_3_26
*320 FILLER_0_3_3
*321 FILLER_0_3_37
*322 FILLER_0_3_45
*323 FILLER_0_3_52
*324 FILLER_0_3_57
*325 FILLER_0_3_72
*326 FILLER_0_3_82
*327 FILLER_0_3_90
*328 FILLER_0_3_98
*329 FILLER_0_4_114
*330 FILLER_0_4_118
*331 FILLER_0_4_15
*332 FILLER_0_4_27
*333 FILLER_0_4_29
*334 FILLER_0_4_3
*335 FILLER_0_4_48
*336 FILLER_0_4_60
*337 FILLER_0_4_72
*338 FILLER_0_4_92
*339 FILLER_0_5_100
*340 FILLER_0_5_113
*341 FILLER_0_5_15
*342 FILLER_0_5_27
*343 FILLER_0_5_3
*344 FILLER_0_5_62
*345 FILLER_0_5_70
*346 FILLER_0_5_76
*347 FILLER_0_5_88
*348 FILLER_0_6_106
*349 FILLER_0_6_114
*350 FILLER_0_6_27
*351 FILLER_0_6_59
*352 FILLER_0_6_63
*353 FILLER_0_6_85
*354 FILLER_0_6_97
*355 FILLER_0_7_113
*356 FILLER_0_7_3
*357 FILLER_0_7_35
*358 FILLER_0_7_47
*359 FILLER_0_7_55
*360 FILLER_0_7_57
*361 FILLER_0_7_69
*362 FILLER_0_7_7
*363 FILLER_0_7_77
*364 FILLER_0_7_83
*365 FILLER_0_7_95
*366 FILLER_0_8_11
*367 FILLER_0_8_118
*368 FILLER_0_8_26
*369 FILLER_0_8_29
*370 FILLER_0_8_3
*371 FILLER_0_8_33
*372 FILLER_0_8_41
*373 FILLER_0_8_53
*374 FILLER_0_8_62
*375 FILLER_0_8_70
*376 FILLER_0_8_79
*377 FILLER_0_8_83
*378 FILLER_0_8_85
*379 FILLER_0_8_98
*380 FILLER_0_9_108
*381 FILLER_0_9_113
*382 FILLER_0_9_15
*383 FILLER_0_9_27
*384 FILLER_0_9_3
*385 FILLER_0_9_36
*386 FILLER_0_9_42
*387 FILLER_0_9_57
*388 FILLER_0_9_70
*389 FILLER_0_9_74
*390 FILLER_0_9_93
*391 PHY_EDGE_ROW_0_Left_20
*392 PHY_EDGE_ROW_0_Right_0
*393 PHY_EDGE_ROW_10_Left_30
*394 PHY_EDGE_ROW_10_Right_10
*395 PHY_EDGE_ROW_11_Left_31
*396 PHY_EDGE_ROW_11_Right_11
*397 PHY_EDGE_ROW_12_Left_32
*398 PHY_EDGE_ROW_12_Right_12
*399 PHY_EDGE_ROW_13_Left_33
*400 PHY_EDGE_ROW_13_Right_13
*401 PHY_EDGE_ROW_14_Left_34
*402 PHY_EDGE_ROW_14_Right_14
*403 PHY_EDGE_ROW_15_Left_35
*404 PHY_EDGE_ROW_15_Right_15
*405 PHY_EDGE_ROW_16_Left_36
*406 PHY_EDGE_ROW_16_Right_16
*407 PHY_EDGE_ROW_17_Left_37
*408 PHY_EDGE_ROW_17_Right_17
*409 PHY_EDGE_ROW_18_Left_38
*410 PHY_EDGE_ROW_18_Right_18
*411 PHY_EDGE_ROW_19_Left_39
*412 PHY_EDGE_ROW_19_Right_19
*413 PHY_EDGE_ROW_1_Left_21
*414 PHY_EDGE_ROW_1_Right_1
*415 PHY_EDGE_ROW_2_Left_22
*416 PHY_EDGE_ROW_2_Right_2
*417 PHY_EDGE_ROW_3_Left_23
*418 PHY_EDGE_ROW_3_Right_3
*419 PHY_EDGE_ROW_4_Left_24
*420 PHY_EDGE_ROW_4_Right_4
*421 PHY_EDGE_ROW_5_Left_25
*422 PHY_EDGE_ROW_5_Right_5
*423 PHY_EDGE_ROW_6_Left_26
*424 PHY_EDGE_ROW_6_Right_6
*425 PHY_EDGE_ROW_7_Left_27
*426 PHY_EDGE_ROW_7_Right_7
*427 PHY_EDGE_ROW_8_Left_28
*428 PHY_EDGE_ROW_8_Right_8
*429 PHY_EDGE_ROW_9_Left_29
*430 PHY_EDGE_ROW_9_Right_9
*431 TAP_TAPCELL_ROW_0_40
*432 TAP_TAPCELL_ROW_0_41
*433 TAP_TAPCELL_ROW_0_42
*434 TAP_TAPCELL_ROW_0_43
*435 TAP_TAPCELL_ROW_10_62
*436 TAP_TAPCELL_ROW_10_63
*437 TAP_TAPCELL_ROW_11_64
*438 TAP_TAPCELL_ROW_11_65
*439 TAP_TAPCELL_ROW_12_66
*440 TAP_TAPCELL_ROW_12_67
*441 TAP_TAPCELL_ROW_13_68
*442 TAP_TAPCELL_ROW_13_69
*443 TAP_TAPCELL_ROW_14_70
*444 TAP_TAPCELL_ROW_14_71
*445 TAP_TAPCELL_ROW_15_72
*446 TAP_TAPCELL_ROW_15_73
*447 TAP_TAPCELL_ROW_16_74
*448 TAP_TAPCELL_ROW_16_75
*449 TAP_TAPCELL_ROW_17_76
*450 TAP_TAPCELL_ROW_17_77
*451 TAP_TAPCELL_ROW_18_78
*452 TAP_TAPCELL_ROW_18_79
*453 TAP_TAPCELL_ROW_19_80
*454 TAP_TAPCELL_ROW_19_81
*455 TAP_TAPCELL_ROW_19_82
*456 TAP_TAPCELL_ROW_19_83
*457 TAP_TAPCELL_ROW_1_44
*458 TAP_TAPCELL_ROW_1_45
*459 TAP_TAPCELL_ROW_2_46
*460 TAP_TAPCELL_ROW_2_47
*461 TAP_TAPCELL_ROW_3_48
*462 TAP_TAPCELL_ROW_3_49
*463 TAP_TAPCELL_ROW_4_50
*464 TAP_TAPCELL_ROW_4_51
*465 TAP_TAPCELL_ROW_5_52
*466 TAP_TAPCELL_ROW_5_53
*467 TAP_TAPCELL_ROW_6_54
*468 TAP_TAPCELL_ROW_6_55
*469 TAP_TAPCELL_ROW_7_56
*470 TAP_TAPCELL_ROW_7_57
*471 TAP_TAPCELL_ROW_8_58
*472 TAP_TAPCELL_ROW_8_59
*473 TAP_TAPCELL_ROW_9_60
*474 TAP_TAPCELL_ROW_9_61
*475 _119_
*476 _120_
*477 _121_
*478 _122_
*479 _123_
*480 _124_
*481 _125_
*482 _126_
*483 _127_
*484 _128_
*485 _129_
*486 _130_
*487 _131_
*488 _132_
*489 _133_
*490 _134_
*491 _135_
*492 _136_
*493 _137_
*494 _138_
*495 _139_
*496 _140_
*497 _141_
*498 _142_
*499 _143_
*500 _144_
*501 _145_
*502 _146_
*503 _147_
*504 _148_
*505 _149_
*506 _150_
*507 _151_
*508 _152_
*509 _153_
*510 _154_
*511 _155_
*512 _156_
*513 _157_
*514 _158_
*515 _159_
*516 _160_
*517 _161_
*518 _162_
*519 _163_
*520 _164_
*521 _165_
*522 _166_
*523 _167_
*524 _168_
*525 _169_
*526 _170_
*527 _171_
*528 _172_
*529 _173_
*530 _174_
*531 _175_
*532 _176_
*533 _177_
*534 _178_
*535 _179_
*536 _180_
*537 _181_
*538 _182_
*539 _183_
*540 _184_
*541 _185_
*542 _186_
*543 _187_
*544 _188_
*545 _189_
*546 _190_
*547 _191_
*548 _192_
*549 _193_
*550 _194_
*551 _195_
*552 _196_
*553 _197_
*554 _198_
*555 _199_
*556 _200_
*557 _201_
*558 _202_
*559 _203_
*560 _204_
*561 _205_
*562 _206_
*563 _207_
*564 _208_
*565 _209_
*566 _210_
*567 _211_
*568 _212_
*569 _213_
*570 _214_
*571 _215_
*572 _216_
*573 _217_
*574 _218_
*575 _219_
*576 _220_
*577 _221_
*578 _222_
*579 _223_
*580 _224_
*581 _225_
*582 _226_
*583 _227_
*584 _228_
*585 _229_
*586 _230_
*587 _231_
*588 _232_
*589 _233_
*590 _234_
*591 _235_
*592 _236_
*593 _237_
*594 _238_
*595 _239_
*596 _240_
*597 _241_
*598 _242_
*599 _243_
*600 _244_
*601 _245_
*602 _246_
*603 _247_
*604 _248_
*605 _249_
*606 _250_
*607 clkbuf_0_clk
*608 clkbuf_1_0__f_clk
*609 clkbuf_1_1__f_clk
*610 clkload0
*611 fanout19
*612 fanout20
*613 hold1
*614 hold2
*615 hold3
*616 input1
*617 input2
*618 input3
*619 input4
*620 input5
*621 input6
*622 input7
*623 input8
*624 input9
*625 output10
*626 output11
*627 output12
*628 output13
*629 output14
*630 output15
*631 output16
*632 output17
*633 output18

*PORTS
clk I
current[0] I
current[1] I
current[2] I
current[3] I
current[4] I
current[5] I
current[6] I
current[7] I
reset I
spike O
voltage[0] O
voltage[1] O
voltage[2] O
voltage[3] O
voltage[4] O
voltage[5] O
voltage[6] O
voltage[7] O

*D_NET *3 0.00519476
*CONN
*P clk I
*I *607:A I *D sky130_fd_sc_hd__clkbuf_16
*CAP
1 clk 0.00249056
2 *607:A 0.00249056
3 *607:A *518:A1 0
4 *607:A *578:A3 0.000137556
5 *607:A *624:A 6.41578e-05
6 *607:A *137:53 1.19309e-05
*RES
1 clk *607:A 31.4521 
*END

*D_NET *4 0.000963019
*CONN
*P current[0] I
*I *616:A I *D sky130_fd_sc_hd__buf_1
*CAP
1 current[0] 0.00048151
2 *616:A 0.00048151
3 *616:A voltage[0] 0
*RES
1 current[0] *616:A 22.9071 
*END

*D_NET *5 0.000503727
*CONN
*P current[1] I
*I *617:A I *D sky130_fd_sc_hd__clkbuf_2
*CAP
1 current[1] 0.000251863
2 *617:A 0.000251863
3 *617:A *618:A 0
*RES
1 current[1] *617:A 18.1949 
*END

*D_NET *6 0.000614022
*CONN
*P current[2] I
*I *618:A I *D sky130_fd_sc_hd__buf_1
*CAP
1 current[2] 0.00026543
2 *618:A 0.00026543
3 *618:A *619:A 8.31618e-05
4 *617:A *618:A 0
*RES
1 current[2] *618:A 19.6407 
*END

*D_NET *7 0.000520012
*CONN
*P current[3] I
*I *619:A I *D sky130_fd_sc_hd__clkbuf_1
*CAP
1 current[3] 0.000186534
2 *619:A 0.000186534
3 *619:A voltage[3] 6.37824e-05
4 *618:A *619:A 8.31618e-05
*RES
1 current[3] *619:A 18.73 
*END

*D_NET *8 0.000657378
*CONN
*P current[4] I
*I *620:A I *D sky130_fd_sc_hd__buf_1
*CAP
1 current[4] 0.000294038
2 *620:A 0.000294038
3 *620:A voltage[4] 6.93019e-05
*RES
1 current[4] *620:A 19.9443 
*END

*D_NET *9 0.00112089
*CONN
*P current[5] I
*I *621:A I *D sky130_fd_sc_hd__clkbuf_1
*CAP
1 current[5] 0.000560447
2 *621:A 0.000560447
3 *621:A *622:A 0
*RES
1 current[5] *621:A 24.4786 
*END

*D_NET *10 0.00101311
*CONN
*P current[6] I
*I *622:A I *D sky130_fd_sc_hd__clkbuf_1
*CAP
1 current[6] 0.000506555
2 *622:A 0.000506555
3 *622:A *623:A 0
4 *621:A *622:A 0
*RES
1 current[6] *622:A 23.6571 
*END

*D_NET *11 0.00101697
*CONN
*P current[7] I
*I *623:A I *D sky130_fd_sc_hd__buf_1
*CAP
1 current[7] 0.000505709
2 *623:A 0.000505709
3 *623:A voltage[5] 0
4 *623:A *631:A 5.54817e-06
5 *622:A *623:A 0
*RES
1 current[7] *623:A 23.6571 
*END

*D_NET *12 0.000535909
*CONN
*P reset I
*I *624:A I *D sky130_fd_sc_hd__buf_2
*CAP
1 reset 0.000181213
2 *624:A 0.000181213
3 *624:A voltage[7] 7.34412e-05
4 *624:A *633:A 2.24106e-05
5 *624:A *153:8 1.34741e-05
6 *607:A *624:A 6.41578e-05
*RES
1 reset *624:A 18.73 
*END

*D_NET *13 0.000682649
*CONN
*P spike O
*I *625:X O *D sky130_fd_sc_hd__buf_2
*CAP
1 spike 0.000332462
2 *625:X 0.000332462
3 spike *145:12 1.77247e-05
*RES
1 *625:X spike 19.6044 
*END

*D_NET *14 0.000877304
*CONN
*P voltage[0] O
*I *626:X O *D sky130_fd_sc_hd__buf_2
*CAP
1 voltage[0] 0.000438652
2 *626:X 0.000438652
3 voltage[0] voltage[1] 0
4 *616:A voltage[0] 0
*RES
1 *626:X voltage[0] 21.6393 
*END

*D_NET *15 0.000880645
*CONN
*P voltage[1] O
*I *627:X O *D sky130_fd_sc_hd__buf_2
*CAP
1 voltage[1] 0.000440323
2 *627:X 0.000440323
3 voltage[1] voltage[2] 0
4 voltage[0] voltage[1] 0
*RES
1 *627:X voltage[1] 21.6393 
*END

*D_NET *16 0.000889912
*CONN
*P voltage[2] O
*I *628:X O *D sky130_fd_sc_hd__buf_2
*CAP
1 voltage[2] 0.000427081
2 *628:X 0.000427081
3 voltage[2] *628:A 3.57488e-05
4 voltage[1] voltage[2] 0
*RES
1 *628:X voltage[2] 21.6393 
*END

*D_NET *17 0.000513477
*CONN
*P voltage[3] O
*I *629:X O *D sky130_fd_sc_hd__buf_2
*CAP
1 voltage[3] 0.000224847
2 *629:X 0.000224847
3 *619:A voltage[3] 6.37824e-05
*RES
1 *629:X voltage[3] 18.1949 
*END

*D_NET *18 0.000689902
*CONN
*P voltage[4] O
*I *630:X O *D sky130_fd_sc_hd__buf_2
*CAP
1 voltage[4] 0.0003103
2 *630:X 0.0003103
3 *620:A voltage[4] 6.93019e-05
*RES
1 *630:X voltage[4] 19.4092 
*END

*D_NET *19 0.000995302
*CONN
*P voltage[5] O
*I *631:X O *D sky130_fd_sc_hd__clkbuf_4
*CAP
1 voltage[5] 0.000497651
2 *631:X 0.000497651
3 voltage[5] voltage[6] 0
4 *623:A voltage[5] 0
*RES
1 *631:X voltage[5] 23.3536 
*END

*D_NET *20 0.00113229
*CONN
*P voltage[6] O
*I *632:X O *D sky130_fd_sc_hd__clkbuf_4
*CAP
1 voltage[6] 0.000550713
2 *632:X 0.000550713
3 voltage[6] *632:A 3.08664e-05
4 voltage[5] voltage[6] 0
*RES
1 *632:X voltage[6] 24.1214 
*END

*D_NET *21 0.000591669
*CONN
*P voltage[7] O
*I *633:X O *D sky130_fd_sc_hd__buf_2
*CAP
1 voltage[7] 0.000249567
2 *633:X 0.000249567
3 voltage[7] *604:CLK 1.90936e-05
4 *624:A voltage[7] 7.34412e-05
*RES
1 *633:X voltage[7] 18.9972 
*END

*D_NET *22 0.00253567
*CONN
*I *578:C1 I *D sky130_fd_sc_hd__o311a_1
*I *596:RESET_B I *D sky130_fd_sc_hd__dfrtp_1
*I *577:Y O *D sky130_fd_sc_hd__inv_2
*CAP
1 *578:C1 0.00017825
2 *596:RESET_B 0.000568385
3 *577:Y 0
4 *22:4 0.000746635
5 *578:C1 *518:B1 0.000139337
6 *578:C1 *572:A2 8.57023e-05
7 *578:C1 *578:A3 0.000196112
8 *578:C1 *578:B1 3.23195e-05
9 *578:C1 *583:A 5.72359e-05
10 *578:C1 *166:38 1.87955e-05
11 *596:RESET_B *572:A1 3.45796e-05
12 *596:RESET_B *572:A2 0.00014183
13 *596:RESET_B *572:B1 7.8195e-05
14 *596:RESET_B *596:CLK 7.61041e-05
15 *596:RESET_B *596:D 0.000182188
*RES
1 *577:Y *22:4 9.3 
2 *22:4 *596:RESET_B 20.1875 
3 *22:4 *578:C1 23.5857 
*END

*D_NET *23 0.000454459
*CONN
*I *597:RESET_B I *D sky130_fd_sc_hd__dfrtp_1
*I *584:Y O *D sky130_fd_sc_hd__inv_2
*CAP
1 *597:RESET_B 0.000165908
2 *584:Y 0.000165908
3 *597:RESET_B *517:A 5.49995e-05
4 *597:RESET_B *142:27 6.76439e-05
*RES
1 *584:Y *597:RESET_B 21.3446 
*END

*D_NET *24 0.000422282
*CONN
*I *598:RESET_B I *D sky130_fd_sc_hd__dfrtp_2
*I *585:Y O *D sky130_fd_sc_hd__inv_2
*CAP
1 *598:RESET_B 0.000123803
2 *585:Y 0.000123803
3 *598:RESET_B *585:A 5.50052e-05
4 *598:RESET_B *142:72 6.46649e-05
5 *598:RESET_B *170:10 5.50052e-05
*RES
1 *585:Y *598:RESET_B 11.8268 
*END

*D_NET *25 0.00054948
*CONN
*I *599:RESET_B I *D sky130_fd_sc_hd__dfrtp_2
*I *586:Y O *D sky130_fd_sc_hd__inv_2
*CAP
1 *599:RESET_B 0.000257445
2 *586:Y 0.000257445
3 *599:RESET_B *570:C1 3.45899e-05
4 *599:RESET_B *144:10 0
*RES
1 *586:Y *599:RESET_B 22.0143 
*END

*D_NET *26 0.00021223
*CONN
*I *600:RESET_B I *D sky130_fd_sc_hd__dfrtp_1
*I *587:Y O *D sky130_fd_sc_hd__inv_2
*CAP
1 *600:RESET_B 6.21077e-05
2 *587:Y 6.21077e-05
3 *600:RESET_B *568:A2 7.54868e-05
4 *600:RESET_B *627:A 1.25275e-05
*RES
1 *587:Y *600:RESET_B 19.6393 
*END

*D_NET *27 0.00041028
*CONN
*I *601:RESET_B I *D sky130_fd_sc_hd__dfrtp_4
*I *588:Y O *D sky130_fd_sc_hd__inv_2
*CAP
1 *601:RESET_B 0.000104218
2 *588:Y 0.000104218
3 *601:RESET_B *91:8 0.000201844
4 *601:RESET_B *142:12 0
5 *601:RESET_B *142:14 0
*RES
1 *588:Y *601:RESET_B 20.8536 
*END

*D_NET *28 0.000543709
*CONN
*I *602:RESET_B I *D sky130_fd_sc_hd__dfrtp_1
*I *589:Y O *D sky130_fd_sc_hd__inv_2
*CAP
1 *602:RESET_B 0.000185914
2 *589:Y 0.000185914
3 *602:RESET_B *87:55 0.000102302
4 *602:RESET_B *148:54 6.958e-05
*RES
1 *589:Y *602:RESET_B 21.4071 
*END

*D_NET *29 0.000474359
*CONN
*I *603:RESET_B I *D sky130_fd_sc_hd__dfrtp_1
*I *590:Y O *D sky130_fd_sc_hd__inv_2
*CAP
1 *603:RESET_B 0.000126224
2 *590:Y 0.000126224
3 *603:RESET_B *550:A 5.66971e-05
4 *603:RESET_B *143:10 5.54655e-05
5 *603:RESET_B *143:12 7.6997e-05
6 *603:RESET_B *143:64 3.27526e-05
*RES
1 *590:Y *603:RESET_B 20.7821 
*END

*D_NET *30 0.000387872
*CONN
*I *604:RESET_B I *D sky130_fd_sc_hd__dfrtp_1
*I *591:Y O *D sky130_fd_sc_hd__inv_2
*CAP
1 *604:RESET_B 5.47887e-05
2 *591:Y 5.47887e-05
3 *604:RESET_B *604:D 0.000223764
4 *604:RESET_B *151:10 5.45307e-05
*RES
1 *591:Y *604:RESET_B 11.4161 
*END

*D_NET *31 0.00037872
*CONN
*I *605:RESET_B I *D sky130_fd_sc_hd__dfrtp_1
*I *592:Y O *D sky130_fd_sc_hd__inv_2
*CAP
1 *605:RESET_B 0.000178966
2 *592:Y 0.000178966
3 *605:RESET_B *593:A 0
4 *605:RESET_B *166:21 2.07878e-05
*RES
1 *592:Y *605:RESET_B 21.0857 
*END

*D_NET *32 0.000296357
*CONN
*I *606:RESET_B I *D sky130_fd_sc_hd__dfrtp_4
*I *593:Y O *D sky130_fd_sc_hd__inv_2
*CAP
1 *606:RESET_B 0.00010483
2 *593:Y 0.00010483
3 *606:RESET_B *593:A 5.65955e-05
4 *606:RESET_B *606:CLK 3.0102e-05
*RES
1 *593:Y *606:RESET_B 20.175 
*END

*D_NET *33 0.000325818
*CONN
*I *594:D I *D sky130_fd_sc_hd__dfxtp_1
*I *580:X O *D sky130_fd_sc_hd__clkbuf_1
*CAP
1 *594:D 0.00013233
2 *580:X 0.00013233
3 *594:D *594:CLK 6.11591e-05
*RES
1 *580:X *594:D 29.9438 
*END

*D_NET *34 0.000485075
*CONN
*I *595:D I *D sky130_fd_sc_hd__dfxtp_1
*I *582:X O *D sky130_fd_sc_hd__clkbuf_1
*CAP
1 *595:D 0.00017196
2 *582:X 0.00017196
3 *595:D *595:CLK 0.000141154
*RES
1 *582:X *595:D 30.658 
*END

*D_NET *35 0.000398033
*CONN
*I *596:D I *D sky130_fd_sc_hd__dfrtp_1
*I *572:X O *D sky130_fd_sc_hd__a21o_1
*CAP
1 *596:D 0.000107922
2 *572:X 0.000107922
3 *596:RESET_B *596:D 0.000182188
*RES
1 *572:X *596:D 29.7786 
*END

*D_NET *36 0.00176326
*CONN
*I *599:D I *D sky130_fd_sc_hd__dfrtp_2
*I *571:X O *D sky130_fd_sc_hd__a31o_1
*CAP
1 *599:D 0.000785545
2 *571:X 0.000785545
3 *599:D *570:C1 5.01883e-05
4 *599:D *144:57 7.70035e-05
5 *599:D *146:23 6.4976e-05
*RES
1 *571:X *599:D 37.4036 
*END

*D_NET *37 0.000261016
*CONN
*I *600:D I *D sky130_fd_sc_hd__dfrtp_1
*I *568:X O *D sky130_fd_sc_hd__o22a_1
*CAP
1 *600:D 3.7173e-05
2 *568:X 3.7173e-05
3 *600:D *600:CLK 8.07792e-06
4 *600:D *628:A 0.000101178
5 *600:D *90:55 7.74135e-05
*RES
1 *568:X *600:D 28.9393 
*END

*D_NET *38 0.0010634
*CONN
*I *601:D I *D sky130_fd_sc_hd__dfrtp_4
*I *561:X O *D sky130_fd_sc_hd__a311o_1
*CAP
1 *601:D 0.000341737
2 *561:X 0.000341737
3 *601:D *561:A2 2.90606e-05
4 *601:D *588:A 7.92197e-05
5 *601:D *86:14 0.000125724
6 *601:D *91:23 1.84865e-05
7 *601:D *129:23 0.000127439
*RES
1 *561:X *601:D 33.0643 
*END

*D_NET *39 0.00105586
*CONN
*I *602:D I *D sky130_fd_sc_hd__dfrtp_1
*I *557:X O *D sky130_fd_sc_hd__o21ba_1
*CAP
1 *602:D 0.000276712
2 *557:X 0.000276712
3 *602:D *557:A2 4.34677e-05
4 *602:D *90:55 0.000458973
*RES
1 *557:X *602:D 33.4393 
*END

*D_NET *40 0.00080868
*CONN
*I *603:D I *D sky130_fd_sc_hd__dfrtp_1
*I *550:X O *D sky130_fd_sc_hd__clkbuf_1
*CAP
1 *603:D 0.000402504
2 *550:X 0.000402504
3 *603:D *604:CLK 3.67279e-06
*RES
1 *550:X *603:D 32.6536 
*END

*D_NET *41 0.00338438
*CONN
*I *604:D I *D sky130_fd_sc_hd__dfrtp_1
*I *542:Y O *D sky130_fd_sc_hd__a31oi_1
*CAP
1 *604:D 0.00135767
2 *542:Y 0.00135767
3 *604:D *542:A3 2.41447e-05
4 *604:D *151:10 0.000386294
5 *604:D *151:19 1.32056e-05
6 *604:D *154:23 2.16394e-05
7 *604:RESET_B *604:D 0.000223764
*RES
1 *542:Y *604:D 45.6179 
*END

*D_NET *42 0.000916021
*CONN
*I *605:D I *D sky130_fd_sc_hd__dfrtp_1
*I *534:X O *D sky130_fd_sc_hd__o21ba_1
*CAP
1 *605:D 0.000440671
2 *534:X 0.000440671
3 *605:D *152:10 3.46801e-05
*RES
1 *534:X *605:D 26.1179 
*END

*D_NET *43 0.00119826
*CONN
*I *606:D I *D sky130_fd_sc_hd__dfrtp_4
*I *525:X O *D sky130_fd_sc_hd__o21a_1
*CAP
1 *606:D 0.000540011
2 *525:X 0.000540011
3 *606:D *525:B1 3.9733e-05
4 *606:D *606:CLK 7.85037e-05
*RES
1 *525:X *606:D 36.8321 
*END

*D_NET *44 0.00057254
*CONN
*I *531:B I *D sky130_fd_sc_hd__xor2_1
*I *540:A1 I *D sky130_fd_sc_hd__a21o_1
*I *530:X O *D sky130_fd_sc_hd__or2_1
*CAP
1 *531:B 7.65754e-05
2 *540:A1 9.21711e-05
3 *530:X 0
4 *44:4 0.000168747
5 *531:B *542:A3 0
6 *531:B *154:27 0.000127446
7 *540:A1 *540:A2 9.16638e-05
8 *540:A1 *98:45 1.59373e-05
*RES
1 *530:X *44:4 9.3 
2 *44:4 *540:A1 11.4071 
3 *44:4 *531:B 19.9429 
*END

*D_NET *45 0.000509728
*CONN
*I *532:A2 I *D sky130_fd_sc_hd__o21a_1
*I *531:X O *D sky130_fd_sc_hd__xor2_1
*CAP
1 *532:A2 0.000189004
2 *531:X 0.000189004
3 *532:A2 *151:19 0.000131721
*RES
1 *531:X *532:A2 22.0107 
*END

*D_NET *46 0.0011073
*CONN
*I *533:B1 I *D sky130_fd_sc_hd__o31a_1
*I *532:X O *D sky130_fd_sc_hd__o21a_1
*CAP
1 *533:B1 0.000244303
2 *532:X 0.000244303
3 *533:B1 *533:A2 0.000228587
4 *533:B1 *538:A 4.57574e-05
5 *533:B1 *541:B 6.54035e-05
6 *533:B1 *137:70 0.000135568
7 *533:B1 *139:16 0.000143375
*RES
1 *532:X *533:B1 34.1536 
*END

*D_NET *47 0.000657649
*CONN
*I *534:B1_N I *D sky130_fd_sc_hd__o21ba_1
*I *533:X O *D sky130_fd_sc_hd__o31a_1
*CAP
1 *534:B1_N 0.000110402
2 *533:X 0.000110402
3 *534:B1_N *525:B1 0.000183201
4 *534:B1_N *534:A1 0.000143375
5 *534:B1_N *534:A2 5.33005e-05
6 *534:B1_N *152:10 5.69674e-05
*RES
1 *533:X *534:B1_N 22.4393 
*END

*D_NET *48 0.000964582
*CONN
*I *536:B1 I *D sky130_fd_sc_hd__a211oi_1
*I *537:A1 I *D sky130_fd_sc_hd__o211a_1
*I *535:Y O *D sky130_fd_sc_hd__inv_2
*CAP
1 *536:B1 0
2 *537:A1 7.60041e-05
3 *535:Y 0.000139529
4 *48:8 0.000215533
5 *537:A1 *508:A2 0.000125736
6 *537:A1 *103:10 5.71124e-05
7 *537:A1 *119:25 0.000171497
8 *48:8 *536:A2 5.49489e-05
9 *48:8 *103:14 9.58181e-05
10 *48:8 *119:25 2.84026e-05
*RES
1 *535:Y *48:8 11.9071 
2 *48:8 *537:A1 20.55 
3 *48:8 *536:B1 9.3 
*END

*D_NET *49 0.000523966
*CONN
*I *538:B I *D sky130_fd_sc_hd__or3_1
*I *536:Y O *D sky130_fd_sc_hd__a211oi_1
*CAP
1 *538:B 0.000156745
2 *536:Y 0.000156745
3 *538:B *508:A2 6.40325e-05
4 *538:B *508:C1 7.82032e-05
5 *538:B *103:10 1.19402e-05
6 *538:B *119:12 5.62995e-05
*RES
1 *536:Y *538:B 31.4036 
*END

*D_NET *50 0.000116769
*CONN
*I *538:C I *D sky130_fd_sc_hd__or3_1
*I *537:X O *D sky130_fd_sc_hd__o211a_1
*CAP
1 *538:C 5.83847e-05
2 *537:X 5.83847e-05
*RES
1 *537:X *538:C 19.5643 
*END

*D_NET *51 0.00450289
*CONN
*I *542:A2 I *D sky130_fd_sc_hd__a31oi_1
*I *538:X O *D sky130_fd_sc_hd__or3_1
*CAP
1 *542:A2 0.000831961
2 *538:X 0.000831961
3 *542:A2 *511:A2 0.000310299
4 *542:A2 *511:B1 5.33005e-05
5 *542:A2 *524:A2 9.58632e-05
6 *542:A2 *538:A 0.00132413
7 *542:A2 *541:B 0.000163221
8 *542:A2 *542:A1 2.46693e-05
9 *542:A2 *542:B1 7.34214e-05
10 *542:A2 *90:14 0.000773272
11 *542:A2 *90:16 2.07878e-05
*RES
1 *538:X *542:A2 41.6 
*END

*D_NET *52 0.0006314
*CONN
*I *540:A2 I *D sky130_fd_sc_hd__a21o_1
*I *539:Y O *D sky130_fd_sc_hd__nand2_1
*CAP
1 *540:A2 0.00012112
2 *539:Y 0.00012112
3 *540:A2 *487:A 5.49544e-05
4 *540:A2 *530:B 1.64621e-05
5 *540:A2 *539:B 1.35239e-05
6 *540:A2 *98:35 0.000141729
7 *540:A2 *98:45 7.08262e-05
8 *540:A1 *540:A2 9.16638e-05
*RES
1 *539:Y *540:A2 22.0286 
*END

*D_NET *53 0.00081798
*CONN
*I *542:A3 I *D sky130_fd_sc_hd__a31oi_1
*I *540:X O *D sky130_fd_sc_hd__a21o_1
*CAP
1 *542:A3 0.000227383
2 *540:X 0.000227383
3 *542:A3 *540:B1 1.84865e-05
4 *542:A3 *153:31 0.000287654
5 *542:A3 *153:66 3.29297e-05
6 *542:A3 *154:23 0
7 *542:A3 *154:27 0
8 *531:B *542:A3 0
9 *604:D *542:A3 2.41447e-05
*RES
1 *540:X *542:A3 32.2071 
*END

*D_NET *54 0.000327958
*CONN
*I *542:B1 I *D sky130_fd_sc_hd__a31oi_1
*I *541:Y O *D sky130_fd_sc_hd__nor2_1
*CAP
1 *542:B1 0.000127268
2 *541:Y 0.000127268
3 *542:A2 *542:B1 7.34214e-05
*RES
1 *541:Y *542:B1 20.7964 
*END

*D_NET *55 0.000562208
*CONN
*I *544:B I *D sky130_fd_sc_hd__nand2_1
*I *543:X O *D sky130_fd_sc_hd__a31o_1
*CAP
1 *544:B 0.00015378
2 *543:X 0.00015378
3 *544:B *504:A2 0.000127939
4 *544:B *504:A3 1.34741e-05
5 *544:B *504:C1 6.74911e-05
6 *544:B *576:C 0
7 *544:B *102:34 0
8 *544:B *116:12 4.57445e-05
*RES
1 *543:X *544:B 31.6714 
*END

*D_NET *56 0.00143087
*CONN
*I *548:A3 I *D sky130_fd_sc_hd__a31o_1
*I *544:Y O *D sky130_fd_sc_hd__nand2_1
*CAP
1 *548:A3 0.000330738
2 *544:Y 0.000330738
3 *548:A3 *548:A2 0.000485388
4 *548:A3 *630:A 0.000141935
5 *548:A3 *115:10 0.000126851
6 *548:A3 *116:12 0
7 *548:A3 *116:31 1.52217e-05
*RES
1 *544:Y *548:A3 35.5286 
*END

*D_NET *57 0.00115643
*CONN
*I *546:B I *D sky130_fd_sc_hd__nand2_1
*I *555:A1 I *D sky130_fd_sc_hd__a21o_1
*I *545:X O *D sky130_fd_sc_hd__or2_1
*CAP
1 *546:B 5.82629e-05
2 *555:A1 0.000121493
3 *545:X 0.000178128
4 *57:6 0.000357885
5 *546:B *547:B1 1.31516e-05
6 *546:B *130:10 5.10822e-05
7 *546:B *131:55 7.6644e-05
8 *546:B *132:42 2.16719e-05
9 *555:A1 *545:B 3.06123e-05
10 *555:A1 *578:B1 8.25843e-06
11 *57:6 *545:B 1.12713e-05
12 *57:6 *556:B1 0.000227971
*RES
1 *545:X *57:6 11.8893 
2 *57:6 *555:A1 10.6571 
3 *57:6 *546:B 19.9429 
*END

*D_NET *58 0.000315343
*CONN
*I *547:A2 I *D sky130_fd_sc_hd__a21oi_1
*I *546:Y O *D sky130_fd_sc_hd__nand2_1
*CAP
1 *547:A2 5.79618e-05
2 *546:Y 5.79618e-05
3 *547:A2 *547:B1 5.03264e-05
4 *547:A2 *132:42 0.000149093
*RES
1 *546:Y *547:A2 29.5464 
*END

*D_NET *59 0.00145687
*CONN
*I *548:B1 I *D sky130_fd_sc_hd__a31o_1
*I *547:Y O *D sky130_fd_sc_hd__a21oi_1
*CAP
1 *548:B1 0.000387837
2 *547:Y 0.000387837
3 *548:B1 *524:A1 0.000101982
4 *548:B1 *549:A1 8.10737e-06
5 *548:B1 *97:16 0.000571107
*RES
1 *547:Y *548:B1 26.5464 
*END

*D_NET *60 0.00114245
*CONN
*I *549:A1 I *D sky130_fd_sc_hd__mux2_1
*I *548:X O *D sky130_fd_sc_hd__a31o_1
*CAP
1 *549:A1 0.000389248
2 *548:X 0.000389248
3 *549:A1 *524:A1 0.000115866
4 *549:A1 *548:A2 4.63305e-05
5 *549:A1 *91:72 9.83388e-05
6 *549:A1 *97:16 9.53089e-05
7 *548:B1 *549:A1 8.10737e-06
*RES
1 *548:X *549:A1 33.2786 
*END

*D_NET *61 0.00377683
*CONN
*I *550:A I *D sky130_fd_sc_hd__clkbuf_1
*I *549:X O *D sky130_fd_sc_hd__mux2_1
*CAP
1 *550:A 0.00133933
2 *549:X 0.00133933
3 *550:A *522:A 9.31595e-05
4 *550:A *549:S 0.000141941
5 *550:A *590:A 4.48647e-05
6 *550:A *610:A 0.00027206
7 *550:A *150:27 0.000302581
8 *550:A *153:46 8.93791e-05
9 *550:A *166:38 9.7497e-05
10 *603:RESET_B *550:A 5.66971e-05
*RES
1 *549:X *550:A 42.4571 
*END

*D_NET *62 0.00157
*CONN
*I *552:B1 I *D sky130_fd_sc_hd__a21oi_1
*I *553:A1 I *D sky130_fd_sc_hd__a31o_1
*I *551:X O *D sky130_fd_sc_hd__or2b_1
*CAP
1 *552:B1 0
2 *553:A1 7.01076e-05
3 *551:X 0.000304749
4 *62:8 0.000374857
5 *553:A1 *553:A2 0.000136727
6 *553:A1 *553:A3 8.47008e-05
7 *553:A1 *553:B1 5.17734e-05
8 *553:A1 *576:B 1.25275e-05
9 *553:A1 *108:32 2.50593e-05
10 *62:8 *543:A2 1.62025e-05
11 *62:8 *551:B_N 0.000139215
12 *62:8 *553:A3 0.000139344
13 *62:8 *112:23 4.17702e-05
14 *62:8 *112:47 0.000172972
*RES
1 *551:X *62:8 15.1929 
2 *62:8 *553:A1 20.3893 
3 *62:8 *552:B1 9.3 
*END

*D_NET *63 0.00151761
*CONN
*I *556:A1 I *D sky130_fd_sc_hd__o211a_1
*I *552:Y O *D sky130_fd_sc_hd__a21oi_1
*CAP
1 *556:A1 0.000366761
2 *552:Y 0.000366761
3 *556:A1 *476:A 4.26863e-05
4 *556:A1 *553:A3 9.15842e-06
5 *556:A1 *556:B1 5.37586e-05
6 *556:A1 *556:C1 6.60357e-05
7 *556:A1 *576:A 0.000143633
8 *556:A1 *576:B 3.33175e-05
9 *556:A1 *578:B1 0.000435502
*RES
1 *552:Y *556:A1 36.3679 
*END

*D_NET *64 0.00108793
*CONN
*I *556:A2 I *D sky130_fd_sc_hd__o211a_1
*I *553:X O *D sky130_fd_sc_hd__a31o_1
*CAP
1 *556:A2 0.000336045
2 *553:X 0.000336045
3 *556:A2 *476:A 4.40806e-05
4 *556:A2 *545:A 0.000130306
5 *556:A2 *553:B1 5.88113e-05
6 *556:A2 *170:45 0.000182644
*RES
1 *553:X *556:A2 32.9571 
*END

*D_NET *65 0.00046066
*CONN
*I *555:A2 I *D sky130_fd_sc_hd__a21o_1
*I *554:Y O *D sky130_fd_sc_hd__nand2_1
*CAP
1 *555:A2 0.000129631
2 *554:Y 0.000129631
3 *555:A2 *125:34 0.000146398
4 *555:A2 *170:45 5.49995e-05
*RES
1 *554:Y *555:A2 30.0821 
*END

*D_NET *66 0.00144468
*CONN
*I *556:B1 I *D sky130_fd_sc_hd__o211a_1
*I *555:X O *D sky130_fd_sc_hd__a21o_1
*CAP
1 *556:B1 0.000238332
2 *555:X 0.000238332
3 *556:B1 *545:A 0.00044338
4 *556:B1 *545:B 2.85234e-05
5 *556:B1 *556:C1 0.000178549
6 *556:B1 *578:B1 3.58317e-05
7 *556:A1 *556:B1 5.37586e-05
8 *57:6 *556:B1 0.000227971
*RES
1 *555:X *556:B1 25.725 
*END

*D_NET *67 0.000482223
*CONN
*I *557:B1_N I *D sky130_fd_sc_hd__o21ba_1
*I *556:X O *D sky130_fd_sc_hd__o211a_1
*CAP
1 *557:B1_N 0.000169233
2 *556:X 0.000169233
3 *557:B1_N *578:B1 9.7746e-05
4 *557:B1_N *90:47 4.60115e-05
*RES
1 *556:X *557:B1_N 30.4929 
*END

*D_NET *68 0.000458348
*CONN
*I *559:D I *D sky130_fd_sc_hd__and4_1
*I *558:X O *D sky130_fd_sc_hd__a21o_1